Version 4
SHEET 1 3236 1280
WIRE 1040 -640 -464 -640
WIRE -464 -592 -464 -640
WIRE -464 -592 -688 -592
WIRE -432 -592 -464 -592
WIRE -288 -592 -352 -592
WIRE -96 -592 -288 -592
WIRE 16 -592 -96 -592
WIRE 576 -592 112 -592
WIRE -688 -576 -688 -592
WIRE -96 -448 -96 -512
WIRE 32 -448 32 -544
WIRE 32 -448 -96 -448
WIRE -144 -368 -704 -368
WIRE 576 -304 576 -592
WIRE 896 -304 576 -304
WIRE 1040 -304 1040 -640
WIRE 576 -288 576 -304
WIRE 576 -160 576 -208
WIRE 576 -160 432 -160
WIRE 1040 -160 1040 -224
WIRE 320 -128 -720 -128
WIRE -720 -112 -720 -128
WIRE 896 -112 896 -304
WIRE 320 -80 320 -128
WIRE 384 -80 320 -80
WIRE 1040 -80 1040 -96
WIRE -128 64 -720 64
WIRE -48 64 -128 64
WIRE 96 64 32 64
WIRE 176 64 96 64
WIRE 320 64 176 64
WIRE 576 64 576 -160
WIRE 576 64 432 64
WIRE -720 96 -720 64
WIRE 832 128 832 112
WIRE 896 128 896 -32
WIRE 896 128 832 128
WIRE 992 128 992 -16
WIRE 992 128 896 128
WIRE 1104 128 992 128
WIRE 1248 128 1104 128
WIRE 48 144 -128 144
WIRE 320 144 320 64
WIRE 384 144 320 144
WIRE 896 144 896 128
WIRE 576 192 576 64
WIRE 784 192 576 192
WIRE 1200 288 1008 288
WIRE 1248 336 1248 304
WIRE 1008 464 1008 368
FLAG -128 208 0
FLAG -720 176 0
FLAG 176 64 uC-Override
FLAG -720 64 uC-Override-Out
FLAG -720 -32 0
FLAG -688 -496 0
FLAG 96 160 0
FLAG 432 -64 0
FLAG 432 160 0
FLAG 1104 128 e/s
FLAG 1248 336 0
FLAG 1008 464 0
FLAG 832 208 0
FLAG -96 -352 0
FLAG -704 -288 0
FLAG -288 -528 0
FLAG 1040 0 0
SYMBOL res -144 48 R0
WINDOW 0 -36 38 Left 2
WINDOW 3 -59 78 Left 2
SYMATTR InstName R1
SYMATTR Value 100k
SYMBOL voltage -720 80 R0
WINDOW 123 0 0 Left 2
WINDOW 39 0 0 Left 2
SYMATTR InstName uC-Override-Out
SYMATTR Value PULSE(0 3.3 30ms 1ms 1ms 100ms 132ms 1)
SYMBOL cap -144 144 R0
SYMATTR InstName C1
SYMATTR Value 4.7µF
SYMBOL res 48 48 R90
WINDOW 0 0 56 VBottom 2
WINDOW 3 32 56 VTop 2
SYMATTR InstName R2
SYMATTR Value 56k
SYMBOL voltage -720 -128 R0
WINDOW 0 -105 -22 Left 2
WINDOW 3 37 55 Left 2
WINDOW 123 0 0 Left 2
WINDOW 39 0 0 Left 2
SYMATTR InstName Limit-Reached-if-low
SYMATTR Value PULSE(3.3 0 5ms 1ms 1ms 200ms 207ms 1)
SYMBOL voltage -688 -592 R0
WINDOW 0 -43 -22 Left 2
WINDOW 123 0 0 Left 2
WINDOW 39 0 0 Left 2
SYMATTR InstName VDD_3.3
SYMATTR Value 3.3
SYMBOL nmos 384 -160 R0
WINDOW 0 -43 50 Left 2
WINDOW 3 -76 -26 Left 2
SYMATTR InstName M3
SYMATTR Value BSB014N04LX3
SYMBOL res 592 -192 R180
WINDOW 0 -42 75 Left 2
WINDOW 3 -62 39 Left 2
SYMATTR InstName R4
SYMATTR Value 5k7
SYMBOL nmos 384 64 R0
WINDOW 0 -48 40 Left 2
WINDOW 3 -62 -18 Left 2
SYMATTR InstName M4
SYMATTR Value BSB014N04LX3
SYMBOL voltage 1008 272 R0
WINDOW 0 -78 -8 Left 2
WINDOW 3 -242 134 Left 2
WINDOW 123 0 0 Left 2
WINDOW 39 0 0 Left 2
SYMATTR InstName OPA5480-E/S
SYMATTR Value PULSE(0 3.3 400ms 1ms 1ms 100ms 502ms 1)
SYMBOL nmos 48 64 R0
SYMATTR InstName M1
SYMATTR Value BSB014N04LX3
SYMBOL res 1024 -320 R0
SYMATTR InstName R6
SYMATTR Value 100
SYMBOL LED 1024 -160 R0
SYMATTR InstName D1
SYMATTR Value NSCW100
SYMBOL nmos 1200 208 R0
WINDOW 0 -48 40 Left 2
WINDOW 3 71 46 Left 2
SYMATTR InstName M2
SYMATTR Value BSB014N04LX3
SYMBOL nmos 784 112 R0
WINDOW 0 -43 50 Left 2
WINDOW 3 -76 -26 Left 2
SYMATTR InstName M5
SYMATTR Value BSB014N04LX3
SYMBOL res 880 -128 R0
SYMATTR InstName R3
SYMATTR Value 11k
SYMBOL pmos 112 -544 M270
SYMATTR InstName M6
SYMATTR Value Si4403DY
SYMBOL res -112 -608 R0
SYMATTR InstName R5
SYMATTR Value 5k
SYMBOL voltage -704 -384 R0
WINDOW 123 0 0 Left 2
WINDOW 39 0 0 Left 2
SYMATTR InstName uC1
SYMATTR Value PULSE(0 3.3 2ms 0.2ms 1ms 1s 1003.2ms 1)
SYMBOL nmos -144 -448 R0
SYMATTR InstName M7
SYMATTR Value BSB014N04LX3
SYMBOL cap -304 -592 R0
SYMATTR InstName C2
SYMATTR Value 1µF
SYMBOL res -336 -608 R90
WINDOW 0 0 56 VBottom 2
WINDOW 3 32 56 VTop 2
SYMATTR InstName R7
SYMATTR Value 100
SYMBOL nmos 992 -96 R0
WINDOW 0 -43 50 Left 2
WINDOW 3 -76 -26 Left 2
SYMATTR InstName M8
SYMATTR Value BSB014N04LX3
SYMBOL res 1232 112 R0
SYMATTR InstName R8
SYMATTR Value 0
TEXT -736 312 Left 2 !.tran 0 1s 0 startup
TEXT -200 248 Left 2 ;The behaviour of this circuit depends on the used FET.\nThe high level is dependent mostly on the on resistor and \nthe pulse duration depends on the on voltage of the FET.\n=> Check calculations if an other FET is used.
TEXT 1272 216 Left 2 ;Model for internal circuitry of the OPA E/S line
TEXT 1096 -136 Left 2 ;Use DIALIGHT - 558-1101-001F (RED) for waring LED
