Version 4
SHEET 1 880 680
WIRE 320 -16 96 -16
WIRE 320 32 320 -16
WIRE 496 32 320 32
WIRE 608 32 496 32
WIRE 96 64 -528 64
WIRE 320 64 320 32
WIRE -528 96 -528 64
WIRE 272 144 96 144
FLAG 96 208 0
FLAG -528 176 0
FLAG 608 112 0
FLAG 320 160 0
FLAG 496 32 Override
FLAG -528 64 uC-Override-Out
SYMBOL res 80 48 R0
SYMATTR InstName R1
SYMATTR Value 100000
SYMBOL voltage -528 80 R0
WINDOW 123 0 0 Left 2
WINDOW 39 0 0 Left 2
SYMATTR InstName uC-Override-Out
SYMATTR Value PULSE(0 3.3 10ms 1ms 1ms 500ms 512ms 1)
SYMBOL cap 80 144 R0
SYMATTR InstName C1
SYMATTR Value 1.2µF
SYMBOL res 80 -32 R0
SYMATTR InstName R2
SYMATTR Value 56000
SYMBOL res 592 16 R0
SYMATTR InstName R3
SYMATTR Value 750000
SYMBOL nmos 272 64 R0
SYMATTR InstName M1
SYMATTR Value BSB012N03LX3
TEXT -298 280 Left 2 !.tran 0 1s 0 startup
