Version 4
SHEET 1 3236 1280
WIRE 544 -304 -720 -304
WIRE 576 -304 544 -304
WIRE -720 -288 -720 -304
WIRE 576 -288 576 -304
WIRE 576 -160 576 -208
WIRE 576 -160 432 -160
WIRE 320 -128 -720 -128
WIRE -720 -112 -720 -128
WIRE 320 -80 320 -128
WIRE 384 -80 320 -80
WIRE -128 64 -720 64
WIRE -48 64 -128 64
WIRE 96 64 32 64
WIRE 176 64 96 64
WIRE 320 64 176 64
WIRE 576 64 576 -160
WIRE 576 64 432 64
WIRE -720 96 -720 64
WIRE 48 144 -128 144
WIRE 320 144 320 64
WIRE 384 144 320 144
WIRE 720 368 320 368
WIRE 1584 368 720 368
WIRE 1584 400 1584 368
WIRE 320 432 320 368
WIRE 544 480 544 -304
WIRE 1584 496 1584 480
WIRE 720 528 720 368
WIRE 576 544 576 64
WIRE 688 544 576 544
WIRE 848 560 752 560
WIRE 320 576 320 512
WIRE 368 576 320 576
WIRE 544 576 544 560
WIRE 688 576 544 576
WIRE 848 576 848 560
WIRE 1456 576 1456 544
WIRE 544 592 544 576
WIRE 1584 608 1584 560
WIRE 320 656 320 576
WIRE 848 672 848 656
WIRE 1232 672 848 672
WIRE 1360 672 1232 672
WIRE 1456 672 1456 656
WIRE 1488 672 1456 672
WIRE 544 688 544 672
WIRE 848 688 848 672
WIRE 1456 688 1456 672
WIRE 1488 688 1488 672
WIRE 1536 688 1488 688
WIRE 1360 768 1360 672
WIRE 1408 768 1360 768
WIRE 320 784 320 736
WIRE 720 784 720 592
WIRE 720 784 320 784
WIRE 848 784 848 768
WIRE 848 784 720 784
WIRE 1360 848 1360 768
WIRE 1312 928 1136 928
WIRE 720 1008 720 784
WIRE 1136 1008 720 1008
WIRE 1360 1008 1360 944
WIRE 1360 1008 1136 1008
WIRE 1456 1008 1456 784
WIRE 1456 1008 1360 1008
WIRE 1584 1008 1584 704
WIRE 1584 1008 1456 1008
FLAG -128 208 0
FLAG -720 176 0
FLAG 176 64 uC-Override
FLAG -720 64 uC-Override-Out
FLAG -720 -32 0
FLAG -720 -208 0
FLAG 368 576 0
FLAG 544 688 0
FLAG 96 160 0
FLAG 432 -64 0
FLAG 432 160 0
FLAG 1232 672 e/s
FLAG 1456 544 0
SYMBOL res -144 48 R0
WINDOW 0 -36 38 Left 2
WINDOW 3 -59 78 Left 2
SYMATTR InstName R1
SYMATTR Value 100k
SYMBOL voltage -720 80 R0
WINDOW 123 0 0 Left 2
WINDOW 39 0 0 Left 2
SYMATTR InstName uC-Override-Out
SYMATTR Value PULSE(0 3.3 30ms 1ms 1ms 100ms 132ms 1)
SYMBOL cap -144 144 R0
SYMATTR InstName C1
SYMATTR Value 1.2µF
SYMBOL res 48 48 R90
WINDOW 0 0 56 VBottom 2
WINDOW 3 32 56 VTop 2
SYMATTR InstName R2
SYMATTR Value 56k
SYMBOL voltage -720 -128 R0
WINDOW 0 -105 -22 Left 2
WINDOW 3 37 55 Left 2
WINDOW 123 0 0 Left 2
WINDOW 39 0 0 Left 2
SYMATTR InstName Limit-Reached-if-low
SYMATTR Value PULSE(3.3 0 5ms 1ms 1ms 200ms 207ms 1)
SYMBOL voltage -720 -304 R0
WINDOW 0 -43 -22 Left 2
WINDOW 123 0 0 Left 2
WINDOW 39 0 0 Left 2
SYMATTR InstName VDD_3.3
SYMATTR Value 3.3
SYMBOL voltage 320 640 R0
WINDOW 0 45 56 Left 2
WINDOW 3 -67 56 Left 2
WINDOW 123 0 0 Left 2
WINDOW 39 0 0 Left 2
SYMATTR InstName -24V
SYMATTR Value 24
SYMBOL voltage 320 416 R0
WINDOW 0 40 61 Left 2
WINDOW 3 -69 55 Left 2
WINDOW 123 0 0 Left 2
WINDOW 39 0 0 Left 2
SYMATTR InstName +24V
SYMATTR Value 24
SYMBOL Opamps\\LTC7652 720 496 R0
WINDOW 0 -113 31 Left 2
WINDOW 3 -114 121 Left 2
SYMATTR InstName U1
SYMBOL res 528 464 R0
WINDOW 0 -36 37 Left 2
WINDOW 3 -45 74 Left 2
SYMATTR InstName R7
SYMATTR Value 10k
SYMBOL res 528 576 R0
WINDOW 0 -36 37 Left 2
WINDOW 3 -43 69 Left 2
SYMATTR InstName R8
SYMATTR Value 10k
SYMBOL nmos 384 -160 R0
WINDOW 0 -43 50 Left 2
WINDOW 3 -76 -26 Left 2
SYMATTR InstName M3
SYMATTR Value BSB014N04LX3
SYMBOL res 592 -192 R180
WINDOW 0 -42 75 Left 2
WINDOW 3 -62 39 Left 2
SYMATTR InstName R4
SYMATTR Value 5k7
SYMBOL nmos 384 64 R0
WINDOW 0 -48 40 Left 2
WINDOW 3 -62 -18 Left 2
SYMATTR InstName M4
SYMATTR Value BSB014N04LX3
SYMBOL res 832 672 R0
WINDOW 0 -48 37 Left 2
WINDOW 3 -48 71 Left 2
SYMATTR InstName R9
SYMATTR Value 32k
SYMBOL res 864 672 R180
WINDOW 0 36 76 Left 2
WINDOW 3 36 40 Left 2
SYMATTR InstName R10
SYMATTR Value 480k
SYMBOL nmos 1536 608 R0
WINDOW 0 -26 54 Left 2
SYMATTR InstName M2
SYMATTR Value FDS6699S
SYMBOL voltage 1136 912 R0
WINDOW 0 -78 -8 Left 2
WINDOW 3 -242 134 Left 2
WINDOW 123 0 0 Left 2
WINDOW 39 0 0 Left 2
SYMATTR InstName OPA5480-E/S
SYMATTR Value PULSE(0 3.3 400ms 1ms 1ms 100ms 502ms 1)
SYMBOL res 1472 672 R180
WINDOW 0 36 76 Left 2
WINDOW 3 36 40 Left 2
SYMATTR InstName R6
SYMATTR Value 480k
SYMBOL res 1600 496 R180
WINDOW 0 36 76 Left 2
WINDOW 3 36 40 Left 2
SYMATTR InstName R3-TBD-in-function-of-LED
SYMATTR Value 20000
SYMBOL LED 1568 496 R0
SYMATTR InstName D1
SYMATTR Value NSPW500BS
SYMBOL nmos 1408 688 R0
WINDOW 0 -30 45 Left 2
SYMATTR InstName M5
SYMATTR Value FDS6699S
SYMBOL nmos 1312 848 R0
WINDOW 0 -34 53 Left 2
WINDOW 3 -70 106 Left 2
SYMATTR InstName M7
SYMATTR Value FDS6699S
SYMBOL nmos 48 64 R0
SYMATTR InstName M1
SYMATTR Value BSB014N04LX3
TEXT -738 312 Left 2 !.tran 0 1s 0 startup
TEXT -200 248 Left 2 ;The behaviour of this circuit depends on the used FET.\nThe high level is dependent mostly on the on resistor and \nthe pulse duration depends on the on voltage of the FET.\n=> Check calculations if an other FET is used.
TEXT 864 832 Left 2 ;Model for internal circuitry of the OPA E/S line
TEXT 1744 528 Left 2 ;Inverting LED signal to use red warning led.\nIf M5 is bypassed the LED could be used as status indicator instead of a warning.\nIn that case a Green one may be better.
TEXT 736 480 Left 2 ;Level shifter in order to be compliant\nwith OP-AMP E/S interface.
