Version 4
SHEET 1 1128 680
WIRE 32 48 -192 48
WIRE 48 48 32 48
WIRE 192 48 112 48
WIRE 240 48 192 48
WIRE 272 48 240 48
WIRE 304 48 272 48
WIRE 320 48 304 48
WIRE 32 112 32 48
WIRE 96 112 32 112
WIRE 176 112 160 112
WIRE 240 112 240 48
WIRE 320 112 320 48
WIRE 336 112 320 112
WIRE 640 112 592 112
WIRE 848 112 640 112
WIRE 1072 112 848 112
WIRE -192 128 -192 48
WIRE 848 160 848 112
WIRE 1072 160 1072 112
WIRE 96 208 32 208
WIRE 192 208 192 48
WIRE 192 208 160 208
WIRE -192 272 -192 208
WIRE 32 272 32 208
WIRE 32 272 -192 272
WIRE 48 272 32 272
WIRE 176 272 176 112
WIRE 176 272 112 272
WIRE 240 272 240 176
WIRE 240 272 176 272
WIRE 256 272 240 272
WIRE 464 272 464 208
WIRE 464 272 256 272
WIRE 848 272 848 224
WIRE 848 272 464 272
WIRE 1072 272 1072 240
WIRE 1072 272 848 272
WIRE 240 288 240 272
WIRE 304 352 304 48
WIRE 320 352 304 352
WIRE 320 416 320 352
WIRE 336 416 320 416
WIRE 848 416 592 416
WIRE 1072 416 848 416
WIRE 848 464 848 416
WIRE 1072 464 1072 416
WIRE 256 576 256 272
WIRE 464 576 464 512
WIRE 464 576 256 576
WIRE 848 576 848 528
WIRE 848 576 464 576
WIRE 1072 576 1072 544
WIRE 1072 576 848 576
FLAG 240 288 0
FLAG 272 48 uin
FLAG 640 112 uout
SYMBOL voltage -192 112 R0
WINDOW 123 0 0 Left 2
WINDOW 39 0 0 Left 2
SYMATTR InstName V1
SYMATTR Value SINE(0 24 50)
SYMBOL cap 224 112 R0
SYMATTR InstName C1
SYMATTR Value 4.7m
SYMBOL PowerProducts\\LT1084-5 464 112 R0
SYMATTR InstName U1
SYMBOL diode 48 64 R270
WINDOW 0 32 32 VTop 2
WINDOW 3 0 32 VBottom 2
SYMATTR InstName D1
SYMBOL diode 112 256 R90
WINDOW 0 0 32 VBottom 2
WINDOW 3 32 32 VTop 2
SYMATTR InstName D2
SYMBOL diode 96 224 R270
WINDOW 0 32 32 VTop 2
WINDOW 3 0 32 VBottom 2
SYMATTR InstName D3
SYMBOL diode 160 96 R90
WINDOW 0 0 32 VBottom 2
WINDOW 3 32 32 VTop 2
SYMATTR InstName D4
SYMBOL res 1056 144 R0
SYMATTR InstName R1
SYMATTR Value 10
SYMBOL PowerProducts\\LT1084-5 464 416 R0
SYMATTR InstName U2
SYMBOL res 1056 448 R0
SYMATTR InstName R2
SYMATTR Value 10
SYMBOL cap 832 160 R0
SYMATTR InstName C2
SYMATTR Value 3.3µ
SYMBOL cap 832 464 R0
SYMATTR InstName C3
SYMATTR Value 3.3µ
TEXT -226 328 Left 2 !.tran 0.5
